<?xml version="1.0" encoding="UTF-8"?>

<!-- generated on 2024-02-16 00:05:30 by Eclipse SUMO netconvert Version 1.19.0
<configuration xmlns:xsi="http://www.w3.org/2001/XMLSchema-instance" xsi:noNamespaceSchemaLocation="http://sumo.dlr.de/xsd/netconvertConfiguration.xsd">

    <input>
        <osm-files value="jaipur.osm"/>
    </input>

    <output>
        <output-file value="jaipur.net.xml"/>
    </output>

    <projection>
        <proj.utm value="true"/>
    </projection>

</configuration>
-->

<net version="1.16" junctionCornerDetail="5" limitTurnSpeed="5.50" xmlns:xsi="http://www.w3.org/2001/XMLSchema-instance" xsi:noNamespaceSchemaLocation="http://sumo.dlr.de/xsd/net_file.xsd">

    <location netOffset="-581762.06,-2975346.54" convBoundary="0.00,0.00,1268.12,1118.37" origBoundary="75.823342,26.897446,75.836128,26.907524" projParameter="+proj=utm +zone=43 +ellps=WGS84 +datum=WGS84 +units=m +no_defs"/>

    <type id="highway.residential" priority="3" numLanes="1" speed="13.89" disallow="tram rail_urban rail rail_electric rail_fast ship" oneway="0"/>
    <type id="highway.tertiary" priority="10" numLanes="1" speed="22.22" disallow="tram rail_urban rail rail_electric rail_fast ship" oneway="0"/>
    
    <edge id=":11586733427_0" function="internal">
        <lane id=":11586733427_0_0" index="0" disallow="tram rail_urban rail rail_electric rail_fast ship" speed="13.89" length="14.47" shape="227.69,486.75 224.08,472.74"/>
    </edge>
    <edge id=":11586733427_1" function="internal">
        <lane id=":11586733427_1_0" index="0" disallow="tram rail_urban rail rail_electric rail_fast ship" speed="7.76" length="4.14" shape="227.69,486.75 227.24,482.64"/>
    </edge>
    <edge id=":11586733427_2" function="internal">
        <lane id=":11586733427_2_0" index="0" disallow="tram rail_urban rail rail_electric rail_fast ship" speed="3.65" length="1.44" shape="227.69,486.75 228.16,485.39"/>
    </edge>
    <edge id=":11586733427_9" function="internal">
        <lane id=":11586733427_9_0" index="0" disallow="tram rail_urban rail rail_electric rail_fast ship" speed="7.76" length="10.64" shape="227.24,482.64 228.28,479.56 230.80,477.51 234.81,476.49"/>
    </edge>
    <edge id=":11586733427_10" function="internal">
        <lane id=":11586733427_10_0" index="0" disallow="tram rail_urban rail rail_electric rail_fast ship" speed="3.65" length="3.23" shape="228.16,485.39 228.84,484.80 229.71,484.99 230.78,485.96"/>
    </edge>
    <edge id=":11586733427_3" function="internal">
        <lane id=":11586733427_3_0" index="0" disallow="tram rail_urban rail rail_electric rail_fast ship" speed="6.21" length="9.05" shape="235.15,479.67 232.69,480.29 231.15,481.55 230.51,483.44 230.78,485.96"/>
    </edge>
    <edge id=":11586733427_4" function="internal">
        <lane id=":11586733427_4_0" index="0" disallow="tram rail_urban rail rail_electric rail_fast ship" speed="8.53" length="14.45" shape="235.15,479.67 231.07,479.60 227.86,478.42 225.54,476.13 224.08,472.74"/>
    </edge>
    <edge id=":11586733427_5" function="internal">
        <lane id=":11586733427_5_0" index="0" disallow="tram rail_urban rail rail_electric rail_fast ship" speed="3.65" length="4.67" shape="235.15,479.67 233.87,479.00 233.39,478.25 233.70,477.41 234.81,476.49"/>
    </edge>
    <edge id=":11586733427_6" function="internal">
        <lane id=":11586733427_6_0" index="0" disallow="tram rail_urban rail rail_electric rail_fast ship" speed="7.13" length="9.82" shape="227.18,471.94 228.16,474.18 229.76,475.69 231.97,476.45 234.81,476.49"/>
    </edge>
    <edge id=":11586733427_7" function="internal">
        <lane id=":11586733427_7_0" index="0" disallow="tram rail_urban rail rail_electric rail_fast ship" speed="13.89" length="14.47" shape="227.18,471.94 230.78,485.96"/>
    </edge>
    <edge id=":11586733427_8" function="internal">
        <lane id=":11586733427_8_0" index="0" disallow="tram rail_urban rail rail_electric rail_fast ship" speed="3.65" length="1.44" shape="227.18,471.94 226.71,473.31"/>
    </edge>
    <edge id=":11586733427_11" function="internal">
        <lane id=":11586733427_11_0" index="0" disallow="tram rail_urban rail rail_electric rail_fast ship" speed="3.65" length="3.23" shape="226.71,473.31 226.03,473.89 225.16,473.70 224.08,472.74"/>
    </edge>
    <edge id=":11586733428_0" function="internal">
        <lane id=":11586733428_0_0" index="0" disallow="tram rail_urban rail rail_electric rail_fast ship" speed="7.47" length="8.03" shape="261.24,481.24 259.87,479.48 258.30,478.29 256.54,477.66 254.59,477.60"/>
    </edge>
    <edge id=":11586733428_1" function="internal">
        <lane id=":11586733428_1_0" index="0" disallow="tram rail_urban rail rail_electric rail_fast ship" speed="8.79" length="12.38" shape="261.24,481.24 259.47,477.80 258.66,474.73 258.83,472.01 259.96,469.66"/>
    </edge>
    <edge id=":11586733428_2" function="internal">
        <lane id=":11586733428_2_0" index="0" disallow="tram rail_urban rail rail_electric rail_fast ship" speed="3.67" length="1.47" shape="261.24,481.24 261.57,479.81"/>
    </edge>
    <edge id=":11586733428_9" function="internal">
        <lane id=":11586733428_9_0" index="0" disallow="tram rail_urban rail rail_electric rail_fast ship" speed="3.67" length="3.29" shape="261.57,479.81 262.18,479.14 263.09,479.23 264.29,480.09"/>
    </edge>
    <edge id=":11586733428_3" function="internal">
        <lane id=":11586733428_3_0" index="0" disallow="tram rail_urban rail rail_electric rail_fast ship" speed="8.11" length="10.45" shape="263.47,470.30 262.44,472.36 262.24,474.68 262.85,477.25 264.29,480.09"/>
    </edge>
    <edge id=":11586733428_4" function="internal">
        <lane id=":11586733428_4_0" index="0" disallow="tram rail_urban rail rail_electric rail_fast ship" speed="10.92" length="3.77" shape="263.47,470.30 261.09,473.22"/>
    </edge>
    <edge id=":11586733428_5" function="internal">
        <lane id=":11586733428_5_0" index="0" disallow="tram rail_urban rail rail_electric rail_fast ship" speed="3.79" length="2.02" shape="263.47,470.30 262.35,471.46 261.96,471.57"/>
    </edge>
    <edge id=":11586733428_10" function="internal">
        <lane id=":11586733428_10_0" index="0" disallow="tram rail_urban rail rail_electric rail_fast ship" speed="10.92" length="7.98" shape="261.09,473.22 260.99,473.34 258.68,475.57 256.55,476.99 254.59,477.60"/>
    </edge>
    <edge id=":11586733428_11" function="internal">
        <lane id=":11586733428_11_0" index="0" disallow="tram rail_urban rail rail_electric rail_fast ship" speed="3.79" length="3.19" shape="261.96,471.57 261.39,471.73 260.59,471.13 259.96,469.66"/>
    </edge>
    <edge id=":11586733428_6" function="internal">
        <lane id=":11586733428_6_0" index="0" disallow="tram rail_urban rail rail_electric rail_fast ship" speed="8.86" length="7.59" shape="254.25,474.41 255.49,474.02 256.85,473.10 258.34,471.64 259.96,469.66"/>
    </edge>
    <edge id=":11586733428_7" function="internal">
        <lane id=":11586733428_7_0" index="0" disallow="tram rail_urban rail rail_electric rail_fast ship" speed="9.09" length="12.19" shape="254.25,474.41 257.16,474.52 259.81,475.51 262.18,477.36 264.29,480.09"/>
    </edge>
    <edge id=":11586733428_8" function="internal">
        <lane id=":11586733428_8_0" index="0" disallow="tram rail_urban rail rail_electric rail_fast ship" speed="3.65" length="4.67" shape="254.25,474.41 255.53,475.08 256.01,475.84 255.70,476.67 254.59,477.60"/>
    </edge>
    <edge id=":11586733429_0" function="internal">
        <lane id=":11586733429_0_0" index="0" disallow="tram rail_urban rail rail_electric rail_fast ship" speed="6.19" length="9.05" shape="297.27,483.14 296.47,480.73 295.11,479.28 293.19,478.80 290.69,479.28"/>
    </edge>
    <edge id=":11586733429_1" function="internal">
        <lane id=":11586733429_1_0" index="0" disallow="tram rail_urban rail rail_electric rail_fast ship" speed="13.89" length="13.34" shape="297.27,483.14 294.95,470.00"/>
    </edge>
    <edge id=":11586733429_2" function="internal">
        <lane id=":11586733429_2_0" index="0" disallow="tram rail_urban rail rail_electric rail_fast ship" speed="3.65" length="1.44" shape="297.27,483.14 297.85,481.82"/>
    </edge>
    <edge id=":11586733429_9" function="internal">
        <lane id=":11586733429_9_0" index="0" disallow="tram rail_urban rail rail_electric rail_fast ship" speed="3.65" length="3.23" shape="297.85,481.82 298.57,481.28 299.42,481.54 300.42,482.58"/>
    </edge>
    <edge id=":11586733429_3" function="internal">
        <lane id=":11586733429_3_0" index="0" disallow="tram rail_urban rail rail_electric rail_fast ship" speed="13.89" length="13.34" shape="298.10,469.45 300.42,482.58"/>
    </edge>
    <edge id=":11586733429_4" function="internal">
        <lane id=":11586733429_4_0" index="0" disallow="tram rail_urban rail rail_electric rail_fast ship" speed="8.32" length="3.31" shape="298.10,469.45 298.09,472.62 298.03,472.74"/>
    </edge>
    <edge id=":11586733429_5" function="internal">
        <lane id=":11586733429_5_0" index="0" disallow="tram rail_urban rail rail_electric rail_fast ship" speed="3.65" length="1.44" shape="298.10,469.45 297.52,470.77"/>
    </edge>
    <edge id=":11586733429_10" function="internal">
        <lane id=":11586733429_10_0" index="0" disallow="tram rail_urban rail rail_electric rail_fast ship" speed="8.32" length="10.23" shape="298.03,472.74 296.85,475.32 294.39,477.54 290.69,479.28"/>
    </edge>
    <edge id=":11586733429_11" function="internal">
        <lane id=":11586733429_11_0" index="0" disallow="tram rail_urban rail rail_electric rail_fast ship" speed="3.65" length="3.23" shape="297.52,470.77 296.80,471.30 295.95,471.05 294.95,470.00"/>
    </edge>
    <edge id=":11586733429_6" function="internal">
        <lane id=":11586733429_6_0" index="0" disallow="tram rail_urban rail rail_electric rail_fast ship" speed="6.88" length="8.98" shape="289.64,476.26 292.24,475.08 293.99,473.64 294.89,471.95 294.95,470.00"/>
    </edge>
    <edge id=":11586733429_7" function="internal">
        <lane id=":11586733429_7_0" index="0" disallow="tram rail_urban rail rail_electric rail_fast ship" speed="7.74" length="14.84" shape="289.64,476.26 293.73,475.47 296.89,476.26 299.12,478.63 300.42,482.58"/>
    </edge>
    <edge id=":11586733429_8" function="internal">
        <lane id=":11586733429_8_0" index="0" disallow="tram rail_urban rail rail_electric rail_fast ship" speed="3.65" length="4.67" shape="289.64,476.26 291.04,476.62 291.68,477.24 291.56,478.13 290.69,479.28"/>
    </edge>
    <edge id=":11586733440_0" function="internal">
        <lane id=":11586733440_0_0" index="0" disallow="tram rail_urban rail rail_electric rail_fast ship" speed="6.75" length="8.82" shape="294.91,469.81 294.20,467.99 292.80,466.73 290.71,466.03 287.93,465.89"/>
    </edge>
    <edge id=":11586733440_1" function="internal">
        <lane id=":11586733440_1_0" index="0" disallow="tram rail_urban rail rail_electric rail_fast ship" speed="13.89" length="13.31" shape="294.91,469.81 292.59,456.70"/>
    </edge>
    <edge id=":11586733440_2" function="internal">
        <lane id=":11586733440_2_0" index="0" disallow="tram rail_urban rail rail_electric rail_fast ship" speed="3.65" length="1.44" shape="294.91,469.81 295.49,468.48"/>
    </edge>
    <edge id=":11586733440_9" function="internal">
        <lane id=":11586733440_9_0" index="0" disallow="tram rail_urban rail rail_electric rail_fast ship" speed="3.65" length="3.23" shape="295.49,468.48 296.21,467.95 297.07,468.21 298.06,469.25"/>
    </edge>
    <edge id=":11586733440_3" function="internal">
        <lane id=":11586733440_3_0" index="0" disallow="tram rail_urban rail rail_electric rail_fast ship" speed="13.89" length="13.31" shape="295.74,456.14 298.06,469.25"/>
    </edge>
    <edge id=":11586733440_4" function="internal">
        <lane id=":11586733440_4_0" index="0" disallow="tram rail_urban rail rail_electric rail_fast ship" speed="7.78" length="4.11" shape="295.74,456.14 295.88,460.25"/>
    </edge>
    <edge id=":11586733440_5" function="internal">
        <lane id=":11586733440_5_0" index="0" disallow="tram rail_urban rail rail_electric rail_fast ship" speed="3.65" length="1.44" shape="295.74,456.14 295.17,457.46"/>
    </edge>
    <edge id=":11586733440_10" function="internal">
        <lane id=":11586733440_10_0" index="0" disallow="tram rail_urban rail rail_electric rail_fast ship" speed="7.78" length="10.61" shape="295.88,460.25 294.62,463.24 291.97,465.12 287.93,465.89"/>
    </edge>
    <edge id=":11586733440_11" function="internal">
        <lane id=":11586733440_11_0" index="0" disallow="tram rail_urban rail rail_electric rail_fast ship" speed="3.65" length="3.23" shape="295.17,457.46 294.45,457.99 293.59,457.74 292.59,456.70"/>
    </edge>
    <edge id=":11586733440_6" function="internal">
        <lane id=":11586733440_6_0" index="0" disallow="tram rail_urban rail rail_electric rail_fast ship" speed="6.24" length="9.05" shape="287.79,462.69 290.27,462.22 291.90,461.06 292.67,459.22 292.59,456.70"/>
    </edge>
    <edge id=":11586733440_7" function="internal">
        <lane id=":11586733440_7_0" index="0" disallow="tram rail_urban rail rail_electric rail_fast ship" speed="8.21" length="13.49" shape="287.79,462.69 291.82,462.95 294.88,464.13 296.96,466.23 298.06,469.25"/>
    </edge>
    <edge id=":11586733440_8" function="internal">
        <lane id=":11586733440_8_0" index="0" disallow="tram rail_urban rail rail_electric rail_fast ship" speed="3.65" length="4.67" shape="287.79,462.69 289.02,463.44 289.46,464.22 289.09,465.04 287.93,465.89"/>
    </edge>
    <edge id=":1813608292_0" function="internal">
        <lane id=":1813608292_0_0" index="0" disallow="tram rail_urban rail rail_electric rail_fast ship" speed="22.22" length="9.38" shape="553.34,467.06 555.83,465.84 557.50,464.90 559.06,463.79 561.20,462.02"/>
    </edge>
    <edge id=":1813608292_1" function="internal">
        <lane id=":1813608292_1_0" index="0" disallow="tram rail_urban rail rail_electric rail_fast ship" speed="20.81" length="9.36" shape="556.27,469.84 557.46,467.31 558.22,465.52 559.24,463.93 561.20,462.02"/>
    </edge>
    <edge id=":1813608324_0" function="internal">
        <lane id=":1813608324_0_0" index="0" disallow="tram rail_urban rail rail_electric rail_fast ship" speed="22.22" length="8.67" shape="575.56,430.81 575.31,428.26 575.04,426.52 574.69,424.79 574.21,422.26"/>
    </edge>
    <edge id=":1813608324_1" function="internal">
        <lane id=":1813608324_1_0" index="0" disallow="tram rail_urban rail rail_electric rail_fast ship" speed="9.90" length="8.85" shape="575.56,430.81 575.44,428.23 575.72,426.42 576.58,424.79 578.19,422.77"/>
    </edge>
    <edge id=":1813608333_0" function="internal">
        <lane id=":1813608333_0_0" index="0" disallow="tram rail_urban rail rail_electric rail_fast ship" speed="22.22" length="3.13" shape="506.13,406.18 505.51,406.88 505.09,407.36 504.70,407.86 504.18,408.63"/>
    </edge>
    <edge id=":1813608333_1" function="internal">
        <lane id=":1813608333_1_0" index="0" disallow="tram rail_urban rail rail_electric rail_fast ship" speed="22.22" length="3.09" shape="505.76,405.97 504.18,408.63"/>
    </edge>
    <edge id=":1813608334_0" function="internal">
        <lane id=":1813608334_0_0" index="0" disallow="tram rail_urban rail rail_electric rail_fast ship" speed="13.89" length="14.40" shape="585.01,276.81 571.08,273.17"/>
    </edge>
    <edge id=":1813608334_1" function="internal">
        <lane id=":1813608334_1_0" index="0" disallow="tram rail_urban rail rail_electric rail_fast ship" speed="7.99" length="4.07" shape="585.01,276.81 581.42,275.29 581.30,275.17"/>
    </edge>
    <edge id=":1813608334_2" function="internal">
        <lane id=":1813608334_2_0" index="0" disallow="tram rail_urban rail rail_electric rail_fast ship" speed="3.65" length="1.44" shape="585.01,276.81 584.05,275.73"/>
    </edge>
    <edge id=":1813608334_9" function="internal">
        <lane id=":1813608334_9_0" index="0" disallow="tram rail_urban rail rail_electric rail_fast ship" speed="7.99" length="10.15" shape="581.30,275.17 579.18,273.00 578.29,269.91 578.76,266.04"/>
    </edge>
    <edge id=":1813608334_10" function="internal">
        <lane id=":1813608334_10_0" index="0" disallow="tram rail_urban rail rail_electric rail_fast ship" speed="3.65" length="3.23" shape="584.05,275.73 583.87,274.85 584.46,274.18 585.82,273.71"/>
    </edge>
    <edge id=":1813608334_3" function="internal">
        <lane id=":1813608334_3_0" index="0" disallow="tram rail_urban rail rail_electric rail_fast ship" speed="6.49" length="9.03" shape="581.85,266.87 581.55,269.33 582.11,271.29 583.54,272.75 585.82,273.71"/>
    </edge>
    <edge id=":1813608334_4" function="internal">
        <lane id=":1813608334_4_0" index="0" disallow="tram rail_urban rail rail_electric rail_fast ship" speed="8.03" length="14.20" shape="581.85,266.87 580.32,270.45 578.01,272.70 574.93,273.60 571.08,273.17"/>
    </edge>
    <edge id=":1813608334_5" function="internal">
        <lane id=":1813608334_5_0" index="0" disallow="tram rail_urban rail rail_electric rail_fast ship" speed="3.65" length="4.67" shape="581.85,266.87 580.77,267.82 579.89,268.00 579.22,267.41 578.76,266.04"/>
    </edge>
    <edge id=":1813608334_6" function="internal">
        <lane id=":1813608334_6_0" index="0" disallow="tram rail_urban rail rail_electric rail_fast ship" speed="6.54" length="9.07" shape="571.89,270.07 574.35,270.35 576.31,269.77 577.78,268.33 578.76,266.04"/>
    </edge>
    <edge id=":1813608334_7" function="internal">
        <lane id=":1813608334_7_0" index="0" disallow="tram rail_urban rail rail_electric rail_fast ship" speed="13.89" length="14.40" shape="571.89,270.07 585.82,273.71"/>
    </edge>
    <edge id=":1813608334_8" function="internal">
        <lane id=":1813608334_8_0" index="0" disallow="tram rail_urban rail rail_electric rail_fast ship" speed="3.65" length="1.44" shape="571.89,270.07 572.85,271.15"/>
    </edge>
    <edge id=":1813608334_11" function="internal">
        <lane id=":1813608334_11_0" index="0" disallow="tram rail_urban rail rail_electric rail_fast ship" speed="3.65" length="3.23" shape="572.85,271.15 573.03,272.02 572.44,272.69 571.08,273.17"/>
    </edge>
    <edge id=":1813608339_0" function="internal">
        <lane id=":1813608339_0_0" index="0" disallow="tram rail_urban rail rail_electric rail_fast ship" speed="6.78" length="9.46" shape="588.66,594.71 587.50,592.46 585.86,591.07 583.75,590.56 581.16,590.92"/>
    </edge>
    <edge id=":1813608339_1" function="internal">
        <lane id=":1813608339_1_0" index="0" disallow="tram rail_urban rail rail_electric rail_fast ship" speed="22.22" length="14.58" shape="588.66,594.71 583.93,580.92"/>
    </edge>
    <edge id=":1813608339_2" function="internal">
        <lane id=":1813608339_2_0" index="0" disallow="tram rail_urban rail rail_electric rail_fast ship" speed="8.02" length="4.06" shape="588.66,594.71 587.93,590.89 587.97,590.72"/>
    </edge>
    <edge id=":1813608339_3" function="internal">
        <lane id=":1813608339_3_0" index="0" disallow="tram rail_urban rail rail_electric rail_fast ship" speed="3.65" length="1.44" shape="588.66,594.71 589.03,593.31"/>
    </edge>
    <edge id=":1813608339_16" function="internal">
        <lane id=":1813608339_16_0" index="0" disallow="tram rail_urban rail rail_electric rail_fast ship" speed="8.02" length="10.14" shape="587.97,590.72 588.60,587.75 590.67,585.29 594.13,583.51"/>
    </edge>
    <edge id=":1813608339_17" function="internal">
        <lane id=":1813608339_17_0" index="0" disallow="tram rail_urban rail rail_electric rail_fast ship" speed="3.65" length="3.23" shape="589.03,593.31 589.65,592.67 590.54,592.79 591.69,593.67"/>
    </edge>
    <edge id=":1813608339_4" function="internal">
        <lane id=":1813608339_4_0" index="0" disallow="tram rail_urban rail rail_electric rail_fast ship" speed="6.52" length="9.05" shape="595.18,586.53 592.97,587.67 591.65,589.24 591.23,591.24 591.69,593.67"/>
    </edge>
    <edge id=":1813608339_5" function="internal">
        <lane id=":1813608339_5_0" index="0" disallow="tram rail_urban rail rail_electric rail_fast ship" speed="13.89" length="14.70" shape="595.18,586.53 581.16,590.92"/>
    </edge>
    <edge id=":1813608339_6" function="internal">
        <lane id=":1813608339_6_0" index="0" disallow="tram rail_urban rail rail_electric rail_fast ship" speed="8.03" length="14.35" shape="595.18,586.53 591.36,587.27 588.20,586.58 585.73,584.46 583.93,580.92"/>
    </edge>
    <edge id=":1813608339_7" function="internal">
        <lane id=":1813608339_7_0" index="0" disallow="tram rail_urban rail rail_electric rail_fast ship" speed="3.65" length="4.67" shape="595.18,586.53 593.79,586.17 593.15,585.55 593.26,584.66 594.13,583.51"/>
    </edge>
    <edge id=":1813608339_8" function="internal">
        <lane id=":1813608339_8_0" index="0" disallow="tram rail_urban rail rail_electric rail_fast ship" speed="6.54" length="9.17" shape="586.96,579.88 588.11,582.16 589.69,583.52 591.70,583.97 594.13,583.51"/>
    </edge>
    <edge id=":1813608339_9" function="internal">
        <lane id=":1813608339_9_0" index="0" disallow="tram rail_urban rail rail_electric rail_fast ship" speed="22.22" length="14.58" shape="586.96,579.88 591.69,593.67"/>
    </edge>
    <edge id=":1813608339_10" function="internal">
        <lane id=":1813608339_10_0" index="0" disallow="tram rail_urban rail rail_electric rail_fast ship" speed="7.90" length="4.11" shape="586.96,579.88 587.70,583.79 587.67,583.92"/>
    </edge>
    <edge id=":1813608339_11" function="internal">
        <lane id=":1813608339_11_0" index="0" disallow="tram rail_urban rail rail_electric rail_fast ship" speed="3.65" length="1.44" shape="586.96,579.88 586.59,581.27"/>
    </edge>
    <edge id=":1813608339_18" function="internal">
        <lane id=":1813608339_18_0" index="0" disallow="tram rail_urban rail rail_electric rail_fast ship" speed="7.90" length="10.30" shape="587.67,583.92 586.98,586.94 584.80,589.31 581.16,590.92"/>
    </edge>
    <edge id=":1813608339_19" function="internal">
        <lane id=":1813608339_19_0" index="0" disallow="tram rail_urban rail rail_electric rail_fast ship" speed="3.65" length="3.23" shape="586.59,581.27 585.97,581.91 585.08,581.79 583.93,580.92"/>
    </edge>
    <edge id=":1813608339_12" function="internal">
        <lane id=":1813608339_12_0" index="0" disallow="tram rail_urban rail rail_electric rail_fast ship" speed="6.39" length="9.04" shape="580.30,587.84 582.58,586.83 583.95,585.34 584.40,583.37 583.93,580.92"/>
    </edge>
    <edge id=":1813608339_13" function="internal">
        <lane id=":1813608339_13_0" index="0" disallow="tram rail_urban rail rail_electric rail_fast ship" speed="13.89" length="14.50" shape="580.30,587.84 594.13,583.51"/>
    </edge>
    <edge id=":1813608339_14" function="internal">
        <lane id=":1813608339_14_0" index="0" disallow="tram rail_urban rail rail_electric rail_fast ship" speed="8.23" length="14.41" shape="580.30,587.84 584.22,587.30 587.43,588.10 589.92,590.22 591.69,593.67"/>
    </edge>
    <edge id=":1813608339_15" function="internal">
        <lane id=":1813608339_15_0" index="0" disallow="tram rail_urban rail rail_electric rail_fast ship" speed="3.65" length="4.67" shape="580.30,587.84 581.67,588.28 582.27,588.95 582.10,589.83 581.16,590.92"/>
    </edge>
    <edge id=":1813608344_0" function="internal">
        <lane id=":1813608344_0_0" index="0" disallow="tram rail_urban rail rail_electric rail_fast ship" speed="13.89" length="0.44" shape="476.06,280.40 476.49,280.27"/>
    </edge>
    <edge id=":1813608344_1" function="internal">
        <lane id=":1813608344_1_0" index="0" disallow="tram rail_urban rail rail_electric rail_fast ship" speed="13.89" length="0.10" shape="475.12,277.38 475.06,277.36"/>
    </edge>
    <edge id=":1813608360_0" function="internal">
        <lane id=":1813608360_0_0" index="0" disallow="tram rail_urban rail rail_electric rail_fast ship" speed="13.89" length="14.41" shape="304.58,718.32 299.98,704.66"/>
    </edge>
    <edge id=":1813608360_1" function="internal">
        <lane id=":1813608360_1_0" index="0" disallow="tram rail_urban rail rail_electric rail_fast ship" speed="8.16" length="3.99" shape="304.58,718.32 303.89,714.56 303.93,714.39"/>
    </edge>
    <edge id=":1813608360_2" function="internal">
        <lane id=":1813608360_2_0" index="0" disallow="tram rail_urban rail rail_electric rail_fast ship" speed="3.65" length="1.44" shape="304.58,718.32 304.95,716.92"/>
    </edge>
    <edge id=":1813608360_9" function="internal">
        <lane id=":1813608360_9_0" index="0" disallow="tram rail_urban rail rail_electric rail_fast ship" speed="8.16" length="10.27" shape="303.93,714.39 304.59,711.41 306.66,708.88 310.11,706.96"/>
    </edge>
    <edge id=":1813608360_10" function="internal">
        <lane id=":1813608360_10_0" index="0" disallow="tram rail_urban rail rail_electric rail_fast ship" speed="3.65" length="3.23" shape="304.95,716.92 305.58,716.29 306.47,716.41 307.61,717.30"/>
    </edge>
    <edge id=":1813608360_3" function="internal">
        <lane id=":1813608360_3_0" index="0" disallow="tram rail_urban rail rail_electric rail_fast ship" speed="6.70" length="9.28" shape="311.28,709.94 309.01,711.19 307.64,712.84 307.18,714.87 307.61,717.30"/>
    </edge>
    <edge id=":1813608360_4" function="internal">
        <lane id=":1813608360_4_0" index="0" disallow="tram rail_urban rail rail_electric rail_fast ship" speed="7.92" length="14.38" shape="311.28,709.94 307.41,710.84 304.24,710.26 301.77,708.20 299.98,704.66"/>
    </edge>
    <edge id=":1813608360_5" function="internal">
        <lane id=":1813608360_5_0" index="0" disallow="tram rail_urban rail rail_electric rail_fast ship" speed="3.65" length="4.67" shape="311.28,709.94 309.87,709.63 309.20,709.03 309.29,708.14 310.11,706.96"/>
    </edge>
    <edge id=":1813608360_6" function="internal">
        <lane id=":1813608360_6_0" index="0" disallow="tram rail_urban rail rail_electric rail_fast ship" speed="6.41" length="9.04" shape="303.01,703.64 304.14,705.87 305.69,707.16 307.69,707.52 310.11,706.96"/>
    </edge>
    <edge id=":1813608360_7" function="internal">
        <lane id=":1813608360_7_0" index="0" disallow="tram rail_urban rail rail_electric rail_fast ship" speed="13.89" length="14.41" shape="303.01,703.64 307.61,717.30"/>
    </edge>
    <edge id=":1813608360_8" function="internal">
        <lane id=":1813608360_8_0" index="0" disallow="tram rail_urban rail rail_electric rail_fast ship" speed="3.65" length="1.44" shape="303.01,703.64 302.64,705.03"/>
    </edge>
    <edge id=":1813608360_11" function="internal">
        <lane id=":1813608360_11_0" index="0" disallow="tram rail_urban rail rail_electric rail_fast ship" speed="3.65" length="3.23" shape="302.64,705.03 302.01,705.67 301.12,705.54 299.98,704.66"/>
    </edge>
    <edge id=":1813608365_0" function="internal">
        <lane id=":1813608365_0_0" index="0" disallow="tram rail_urban rail rail_electric rail_fast ship" speed="13.89" length="0.32" shape="669.92,538.62 669.84,538.65 669.78,538.68 669.72,538.72 669.64,538.77"/>
    </edge>
    <edge id=":1813608365_1" function="internal">
        <lane id=":1813608365_1_0" index="0" disallow="tram rail_urban rail rail_electric rail_fast ship" speed="13.89" length="0.96" shape="667.81,536.15 668.05,535.99 668.21,535.88 668.39,535.80 668.65,535.68"/>
    </edge>
    <edge id=":1813608380_0" function="internal">
        <lane id=":1813608380_0_0" index="0" disallow="tram rail_urban rail rail_electric rail_fast ship" speed="22.22" length="11.66" shape="497.33,424.20 496.78,427.38 496.55,429.97 496.58,432.57 496.85,435.79"/>
    </edge>
    <edge id=":1813608380_1" function="internal">
        <lane id=":1813608380_1_0" index="0" disallow="tram rail_urban rail rail_electric rail_fast ship" speed="22.22" length="11.64" shape="497.33,424.20 496.56,427.32 495.64,429.74 494.46,432.06 492.91,434.91"/>
    </edge>
    <edge id=":1813608381_0" function="internal">
        <lane id=":1813608381_0_0" index="0" disallow="tram rail_urban rail rail_electric rail_fast ship" speed="22.22" length="9.42" shape="569.97,411.49 568.51,409.11 567.41,407.53 566.14,406.10 564.17,404.12"/>
    </edge>
    <edge id=":1813608381_1" function="internal">
        <lane id=":1813608381_1_0" index="0" disallow="tram rail_urban rail rail_electric rail_fast ship" speed="20.81" length="9.41" shape="572.46,408.31 569.82,407.36 567.95,406.77 566.26,405.90 564.17,404.12"/>
    </edge>
    <edge id=":1813608390_0" function="internal">
        <lane id=":1813608390_0_0" index="0" disallow="tram rail_urban rail rail_electric rail_fast ship" speed="22.22" length="9.83" shape="553.18,491.15 552.78,488.41 553.39,486.47 554.21,484.48 554.45,481.61"/>
    </edge>
    <edge id=":1813608390_1" function="internal">
        <lane id=":1813608390_1_0" index="0" disallow="tram rail_urban rail rail_electric rail_fast ship" speed="3.65" length="1.29" shape="553.18,491.15 553.51,489.90"/>
    </edge>
    <edge id=":1813608390_4" function="internal">
        <lane id=":1813608390_4_0" index="0" disallow="tram rail_urban rail rail_electric rail_fast ship" speed="3.65" length="3.39" shape="553.51,489.90 553.55,489.75 554.17,489.12 555.06,489.23 556.21,490.11"/>
    </edge>
    <edge id=":1813608390_2" function="internal">
        <lane id=":1813608390_2_0" index="0" disallow="tram rail_urban rail rail_electric rail_fast ship" speed="5.79" length="12.92" shape="549.20,482.00 551.86,486.02 553.63,487.30 554.49,485.83 554.45,481.61"/>
    </edge>
    <edge id=":1813608390_3" function="internal">