<?xml version="1.0" encoding="UTF-8"?>

<!-- generated on 2024-02-17 15:31:08.605370 by randomTrips.py v1_19_0+0000-baa66a0f364
<configuration>
    <net-file value="jaipur.net.xml"/>
    <route-file value="jaipur.rou.xml"/>
    <length value="True"/>
    <end value="100.0"/>
</configuration>
-->


<routes xmlns:xsi="http://www.w3.org/2001/XMLSchema-instance" xsi:noNamespaceSchemaLocation="http://sumo.dlr.de/xsd/routes_file.xsd">
<!--    <trip id="0" depart="0.00" from= "170204662#0" to= "-28851030#0"/>-->
    <trip id="1" depart="1.00" from= "170204662#0" to= "-28851399#0"/>
    <trip id="2" depart="2.00" from= "170204662#0" to= "-28851399#0"/>
    <trip id="3" depart="3.00" from= "170204662#0" to= "-28851399#0"/>
    <trip id="4" depart="4.00" from= "170204662#0" to= "-28851399#0"/>
    <trip id="5" depart="5.00" from= "170204662#0" to= "-28851399#0"/>
    <trip id="6" depart="6.00" from= "170204662#0" to= "-28851399#0"/>
    <trip id="7" depart="7.00" from= "170204662#0" to= "-28851399#0"/>
    <trip id="8" depart="8.00" from= "170204662#0" to= "-28851399#0"/>
    <trip id="9" depart="9.00" from= "170204662#0" to= "-28851399#0"/>
    <trip id="10" depart="10.00" from= "170204662#0" to= "-28851399#0"/>


<!--    <trip id="1" depart="1.00" from= "170204662#0" to= "-532234604#0"/>-->
<!--    <trip id="2" depart="2.00" from= "170204662#0" to= "-28851399#0"/>-->

    <trip id="11" depart="11.00" from="28851030#0" to="-532234604#0"/>
    <trip id="12" depart="12.00" from="28851030#0" to="-532234604#0"/>
    <trip id="13" depart="13.00" from="28851030#0" to="-532234604#0"/>
    <trip id="14" depart="14.00" from="28851030#0" to="-532234604#0"/>
    <trip id="15" depart="15.00" from="28851030#0" to="-532234604#0"/>
    <trip id="16" depart="16.00" from="28851030#0" to="-532234604#0"/>
    <trip id="17" depart="17.00" from="28851030#0" to="-532234604#0"/>
    <trip id="18" depart="18.00" from="28851030#0" to="-532234604#0"/>
    <trip id="19" depart="19.00" from="28851030#0" to="-532234604#0"/>
    <trip id="20" depart="20.00" from="28851030#0" to="-532234604#0"/>


<!--    <trip id="4" depart="4.00" from="28851030#0" to="-28851399#0"/>-->
<!--    <trip id="5" depart="5.00" from="28851030#0" to="-532234604#0"/>-->

    <trip id="21" depart="21.00" from="28851399#0" to="-170204662#0"/>
    <trip id="22" depart="22.00" from="28851399#0" to="-170204662#0"/>
    <trip id="23" depart="23.00" from="28851399#0" to="-170204662#0"/>
    <trip id="24" depart="24.00" from="28851399#0" to="-170204662#0"/>
    <trip id="25" depart="25.00" from="28851399#0" to="-170204662#0"/>
    <trip id="26" depart="26.00" from="28851399#0" to="-170204662#0"/>
    <trip id="27" depart="27.00" from="28851399#0" to="-170204662#0"/>
    <trip id="28" depart="28.00" from="28851399#0" to="-170204662#0"/>
    <trip id="29" depart="29.00" from="28851399#0" to="-170204662#0"/>
    <trip id="30" depart="30.00" from="28851399#0" to="-170204662#0"/>
<!--    <trip id="7" depart="7.00" from="28851399#0" to="-170204662#0"/>-->
<!--    <trip id="8" depart="8.00" from="28851399#0" to="-28851030#0"/>-->

    <trip id="31" depart="31.00" from="532234604#0" to="-28851030#0"/>
    <trip id="32" depart="32.00" from="532234604#0" to="-28851030#0"/>
    <trip id="33" depart="33.00" from="532234604#0" to="-28851030#0"/>
    <trip id="34" depart="34.00" from="532234604#0" to="-28851030#0"/>
    <trip id="35" depart="35.00" from="532234604#0" to="-28851030#0"/>
    <trip id="36" depart="36.00" from="532234604#0" to="-28851030#0"/>
    <trip id="37" depart="37.00" from="532234604#0" to="-28851030#0"/>
    <trip id="38" depart="38.00" from="532234604#0" to="-28851030#0"/>
    <trip id="39" depart="39.00" from="532234604#0" to="-28851030#0"/>
    <trip id="40" depart="40.00" from="532234604#0" to="-28851030#0"/>
<!--    <trip id="10" depart="10.00" from="532234604#0" to="-28851030#0"/>-->
<!--    <trip id="11" depart="11.00" from="532234604#0" to="-170204662#0"/>-->




<!--    -->
<!--    <trip id="1" depart="4.00" from="170204662#0" to="-28851030#0"/>-->
<!--    <trip id="12" depart="5.00" from="28851030#0" to="-170204662#0"/>-->
<!--    <trip id="22" depart="6.00" from="28851399#2" to="-532234604#0"/>-->
<!--    <trip id="32" depart="7.00" from="532234604#0" to="-28851399#2"/>-->
<!--    <trip id="2" depart="8.00" from="170204662#0" to="-28851030#0"/>-->
<!--    <trip id="13" depart="9.00" from="28851030#0" to="-170204662#0"/>-->
<!--    <trip id="23" depart="10.00" from="28851399#2" to="-532234604#0"/>-->
<!--    <trip id="33" depart="11.00" from="532234604#0" to="-28851399#2"/>-->
<!--    <trip id="4" depart="12.00" from="170204662#0" to="-28851030#0"/>-->
<!--    <trip id="14" depart="13.00" from="28851030#0" to="-170204662#0"/>-->
<!--    <trip id="24" depart="14.00" from="28851399#2" to="-532234604#0"/>-->
<!--    <trip id="34" depart="15.00" from="532234604#0" to="-28851399#2"/>-->
<!--    <trip id="5" depart="16.00" from="170204662#0" to="-28851030#0"/>-->
<!--    <trip id="15" depart="17.00" from="28851030#0" to="-170204662#0"/>-->
<!--    <trip id="25" depart="18.00" from="28851399#2" to="-532234604#0"/>-->
<!--    <trip id="35" depart="19.00" from="532234604#0" to="-28851399#2"/>-->
<!--    <trip id="6" depart="20.00" from="170204662#0" to="-28851030#0"/>-->
<!--    <trip id="16" depart="21.00" from="28851030#0" to="-170204662#0"/>-->

<!--    <trip id="51" depart="21.10" from="170204662#0" to="-28851399#2"/>-->
<!--    <trip id="52" depart="21.20" from="170204662#0" to="-28851399#2"/>-->
<!--    <trip id="53" depart="21.30" from="170204662#0" to="-28851399#2"/>-->
<!--    <trip id="54" depart="21.40" from="170204662#0" to="-28851399#2"/>-->
<!--    <trip id="55" depart="21.50" from="170204662#0" to="-28851399#2"/>-->
<!--    <trip id="56" depart="21.60" from="170204662#0" to="-28851399#2"/>-->
<!--    <trip id="57" depart="21.70" from="170204662#0" to="-28851399#2"/>-->
<!--    <trip id="58" depart="21.80" from="170204662#0" to="-28851399#2"/>-->
<!--    <trip id="59" depart="21.90" from="170204662#0" to="-28851399#2"/>-->

<!--    <trip id="26" depart="22.00" from="28851399#2" to="-532234604#0"/>-->
<!--    <trip id="36" depart="23.00" from="532234604#0" to="-28851399#2"/>-->
<!--    <trip id="7" depart="24.00" from="170204662#0" to="-28851030#0"/>-->
<!--    <trip id="17" depart="25.00" from="28851030#0" to="-170204662#0"/>-->
<!--    <trip id="27" depart="26.00" from="28851399#2" to="-532234604#0"/>-->
<!--    <trip id="37" depart="27.00" from="532234604#0" to="-28851399#2"/>-->
<!--    <trip id="8" depart="28.00" from="170204662#0" to="-28851030#0"/>-->
<!--    <trip id="18" depart="29.00" from="28851030#0" to="-170204662#0"/>-->
<!--    <trip id="28" depart="30.00" from="28851399#2" to="-532234604#0"/>-->
<!--    <trip id="38" depart="31.00" from="532234604#0" to="-28851399#2"/>-->
<!--    <trip id="9" depart="32.00" from="170204662#0" to="-28851030#0"/>-->
<!--    <trip id="19" depart="33.00" from="28851030#0" to="-170204662#0"/>-->
<!--    <trip id="29" depart="34.00" from="28851399#2" to="-532234604#0"/>-->
<!--    <trip id="39" depart="35.00" from="532234604#0" to="-28851399#2"/>-->
<!--    <trip id="10" depart="36.00" from="170204662#0" to="-28851030#0"/>-->
<!--    <trip id="20" depart="37.00" from="28851030#0" to="-170204662#0"/>-->
<!--    <trip id="30" depart="38.00" from="28851399#2" to="-532234604#0"/>-->
<!--    <trip id="40" depart="39.00" from="532234604#0" to="-28851399#2"/>-->


    <!-- <trip id="41" depart="41.00" from="28851074#1" to="532234601#1"/>
    <trip id="42" depart="42.00" from="-532234606#0" to="-28851290#1"/>
    <trip id="43" depart="43.00" from="532234617#7" to="-532234617#3"/>
    <trip id="44" depart="44.00" from="-28851070#0" to="-170204676#0"/>
    <trip id="45" depart="45.00" from="-28851074#2" to="28851074#1"/>
    <trip id="46" depart="46.00" from="28851399#0" to="-532234601#1"/>
    <trip id="47" depart="47.00" from="-170205509#2" to="-374913001"/>
    <trip id="48" depart="48.00" from="532234617#6" to="170204662#2"/>
    <trip id="49" depart="49.00" from="532234609#0" to="28873301"/>
    <trip id="50" depart="50.00" from="-170204662#3" to="28851245#4"/>
    <trip id="51" depart="51.00" from="28851251#2" to="170204672#0"/>
    <trip id="52" depart="52.00" from="-28851298#1" to="28851154#1"/>
    <trip id="53" depart="53.00" from="-28851074#2" to="-532234604#2"/>
    <trip id="54" depart="54.00" from="-532234617#4" to="532234608"/>
    <trip id="55" depart="55.00" from="532234592#6" to="-28851309#2"/>
    <trip id="56" depart="56.00" from="170204672#1" to="-28851203#2"/>
    <trip id="57" depart="57.00" from="532234604#0" to="374913001"/>
    <trip id="58" depart="58.00" from="-28851377" to="28851154#0"/>
    <trip id="59" depart="59.00" from="28851156#1" to="-28851181#1"/>
    <trip id="60" depart="60.00" from="28851373#1" to="170204672#1"/>
    <trip id="61" depart="61.00" from="28851377" to="170204662#3"/>
    <trip id="62" depart="62.00" from="-1246284225" to="-28851399#0"/>
    <trip id="63" depart="63.00" from="-170204672#1" to="532234605#2"/>
    <trip id="64" depart="64.00" from="532234599#0" to="28851377"/>
    <trip id="65" depart="65.00" from="-28851377" to="-170204676#2"/>
    <trip id="66" depart="66.00" from="532234592#8" to="532234607#0"/>
    <trip id="67" depart="67.00" from="-28851035#2" to="-532234608"/>
    <trip id="68" depart="68.00" from="-28851030#1" to="28851290#3"/>
    <trip id="69" depart="69.00" from="28851377" to="-28851156#0"/>
    <trip id="70" depart="70.00" from="170204661#0" to="170204672#5"/>
    <trip id="71" depart="71.00" from="-28851298#1" to="483439737"/>
    <trip id="72" depart="72.00" from="-532234608" to="-28851290#0"/>
    <trip id="73" depart="73.00" from="170204684" to="28851245#4"/>
    <trip id="74" depart="74.00" from="-28851245#4" to="-28851399#0"/>
    <trip id="75" depart="75.00" from="532234617#4" to="28851154#4"/>
    <trip id="76" depart="76.00" from="-532234616#0" to="1246284225"/>
    <trip id="77" depart="77.00" from="-28851154#1" to="-28851290#2"/>
    <trip id="78" depart="78.00" from="-28873301" to="28851030#1"/>
    <trip id="79" depart="79.00" from="-28851290#1" to="-28851290#1"/>
    <trip id="80" depart="80.00" from="-28851030#2" to="28851074#2"/>
    <trip id="81" depart="81.00" from="-28851290#1" to="532234604#1"/>
    <trip id="82" depart="82.00" from="374913013" to="-170205509#1"/>
    <trip id="83" depart="83.00" from="-28851290#2" to="28851181#1"/>
    <trip id="84" depart="84.00" from="-28851251#0" to="-28851156#1"/>
    <trip id="85" depart="85.00" from="532234605#2" to="170204676#2"/>
    <trip id="86" depart="86.00" from="1246284226#1" to="28851298#1"/>
    <trip id="87" depart="87.00" from="28851399#5" to="-28851242#3"/>
    <trip id="88" depart="88.00" from="-28851070#1" to="-532234604#1"/>
    <trip id="89" depart="89.00" from="-532234608" to="-532234606#1"/>
    <trip id="90" depart="90.00" from="28851298#1" to="28851181#1"/>
    <trip id="91" depart="91.00" from="532234616#1" to="-28851035#1"/>
    <trip id="92" depart="92.00" from="-532234606#0" to="-28869597#1"/>
    <trip id="93" depart="93.00" from="374913013" to="-28851298#1"/>
    <trip id="94" depart="94.00" from="-28851245#3" to="-532234605#1"/>
    <trip id="95" depart="95.00" from="-532234608" to="-28851373#0"/>
    <trip id="96" depart="96.00" from="-28851290#4" to="532234605#1"/>
    <trip id="97" depart="97.00" from="-532234616#1" to="28873301"/>
    <trip id="98" depart="98.00" from="28851030#0" to="-170204676#1"/>
    <trip id="99" depart="99.00" from="532234617#7" to="28851399#2"/> -->
</routes>
